* Capacitor models for AMI Semiconductor's C5 process
*
* Poly2/Poly Capacitor
* ===================================================================
* Node: top - top plate    (POLY2)
*       bot - bottom plate (POLY)
*
* Poly2 over Poly on Field, Area      CP2P  0.8   0.9   0.96  fF/um^2
* Poly2 over Poly on Field, Periphery CP2PP 0.04  0.065 0.127 fF/um
* Poly on Field, Area                 CPS   0.098 0.12  0.13  fF/um^2
*
* Minimum Poly2 Width : 2.0 um
*

.lib MIN
.subckt poly2capacitor top bot sub w=2.0u l=2.0u
C1 top bot {w * l * 0.8f}
C2 top bot {2 * (w+l) * 0.04f}
C3 bot sub {w * l * 0.098f}
.ends poly2capacitor
.endl 


.lib NOM
.subckt poly2capacitor top bot sub w=2.0u l=2.0u
C1 top bot {w * l * 0.9f}
C2 top bot {2 * (w+l) * 0.065f}
C3 bot sub {w * l * 0.12f}
.ends poly2capacitor
.endl 

.lib MAX
.subckt poly2capacitor top bot sub w=2.0u l=2.0u
C1 top bot {w * l * 0.96f}
C2 top bot {2 * (w+l) * 0.127f}
C3 bot sub {w * l * 0.13f}
.ends poly2capacitor
.endl 

* vim: syntax=off
